*Heading
** Job name: Job-1 Model name: Model-1
** Generated by: Abaqus/CAE 2018
*Preprint, echo=NO, model=NO, history=NO, contact=NO
**
** PARTS
**
*Part, name=Part-1
*Node
      1,           0., -0.120000005
      2,           0., -0.200000003
      3,  0.200000003, -0.200000003
      4, 0.0799999982, -0.119999997
      5,  0.200000003, -0.119999997
      6, 0.0799999982,           0.
      7,           0.,           0.
      8,           0.,       -0.125
      9,           0., -0.129999995
     10,           0.,  -0.13499999
     11,           0., -0.139999986
     12,           0., -0.144999996
     13,           0., -0.150000006
     14,           0., -0.155000001
     15,           0., -0.160000011
     16,           0., -0.165000007
     17,           0., -0.170000002
     18,           0., -0.174999997
     19,           0., -0.180000007
     20,           0., -0.185000002
** ... 3213 like lines cut
*Element, type=CPS8R
   1,    1,    8,  176,   91, 1106, 1107, 1108, 1109
   2,    8,    9,  177,  176, 1110, 1111, 1112, 1107
   3,    9,   10,  178,  177, 1113, 1114, 1115, 1111
   4,   10,   11,  179,  178, 1116, 1117, 1118, 1114
   5,   11,   12,  180,  179, 1119, 1120, 1121, 1117
   6,   12,   13,  181,  180, 1122, 1123, 1124, 1120
   7,   13,   14,  182,  181, 1125, 1126, 1127, 1123
   8,   14,   15,  183,  182, 1128, 1129, 1130, 1126
   9,   15,   16,  184,  183, 1131, 1132, 1133, 1129
  10,   16,   17,  185,  184, 1134, 1135, 1136, 1132
  11,   17,   18,  186,  185, 1137, 1138, 1139, 1135
  12,   18,   19,  187,  186, 1140, 1141, 1142, 1138
  13,   19,   20,  188,  187, 1143, 1144, 1145, 1141
  14,   20,   21,  189,  188, 1146, 1147, 1148, 1144
  15,   21,   22,  190,  189, 1149, 1150, 1151, 1147
  16,   22,    2,   23,  190, 1152, 1153, 1154, 1150
  17,   91,  176,  191,   90, 1108, 1155, 1156, 1157
  18,  176,  177,  192,  191, 1112, 1158, 1159, 1155
  19,  177,  178,  193,  192, 1115, 1160, 1161, 1158
  20,  178,  179,  194,  193, 1118, 1162, 1163, 1160
** ... 1004 like lines cut
*Nset, nset=Set-6, generate
    1,  3233,     1
*Elset, elset=Set-6, generate
    1,  1024,     1
*Elset, elset=ss, generate
    1,  1024,     1
*Nset, nset=load-set
  5, 92, 93, 94
** Section: sldSec
*Solid Section, elset=ss, material=Material01
,
*End Part
**  
**
** ASSEMBLY
**
*Assembly, name=Assembly
**  
*Instance, name=Part-1-1, part=Part-1
*End Instance
**  
*Nset, nset=bc-set, instance=Part-1-1
    6,    7,  138,  139,  140,  141,  142,  143,  144,  145,  146,  147,  148,  149,  150,  151
  152, 3202, 3205, 3207, 3209, 3211, 3213, 3215, 3217, 3219, 3221, 3223, 3225, 3227, 3229, 3231
 3233,
*Elset, elset=bc-set, instance=Part-1-1, generate
 1009,  1024,     1
*End Assembly
** 
** MATERIALS
** 
*Material, name=Material-1
*Elastic
 1e+06, 0.3
*Material, name=Material01
*Elastic
1., 0.3
*Material, name=Material02
*Elastic
 1e-09, 0.3
** ----------------------------------------------------------------
** 
** STEP: Step-1
** 
*Step, name=Step-1, nlgeom=NO
*Static
1., 1., 1e-05, 1.
** 
** BOUNDARY CONDITIONS
** 
** Name: BC-1 Type: Displacement/Rotation
*Boundary
bc-set, 1, 1
bc-set, 2, 2
bc-set, 6, 6
** 
** LOADS
** 
** Name: Load-1   Type: Concentrated force
*Cload
Part-1-1.load-set, 2, -4.
** 
** OUTPUT REQUESTS
** 
*Restart, write, frequency=0
** 
** FIELD OUTPUT: SEDensity
** 
*Output, field
*Element Output, directions=YES
ELEDEN, 
** 
** FIELD OUTPUT: F-Output-1
** 
*Output, field, variable=PRESELECT
** 
** HISTORY OUTPUT: ExtWork
** 
*Output, history
*Energy Output
ALLWK, 
** 
** HISTORY OUTPUT: H-Output-1
** 
*Output, history, variable=PRESELECT
*End Step
